    14 

 Al  8.414719  7.062026  7.269622  
 O   6.900060  8.233045  6.881213  
 H   6.032536  8.351699  7.291727  
 H   7.191386  9.119242  6.647398  
 O   10.120845  5.975703  7.089542  
 H   10.399840  5.301287  6.418613  
 H   10.922422  6.140021  7.638852  
 O   9.481000  8.520550  7.019370  
 H   9.785925  8.859563  7.864097  
 O   7.744160  6.609721  8.897724  
 H   8.020360  7.311685  9.548379  
 O   7.494645  5.770618  6.265716  
 H   6.363009  5.652977  5.720441  
 H   7.837729  4.886817  6.413302  
    14 

 Al  8.417498  7.059201  7.269589  
 O   6.897934  8.236243  6.879756  
 H   6.029480  8.345971  7.285076  
 H   7.187958  9.125155  6.657752  
 O   10.121217  5.974141  7.088262  
 H   10.403204  5.296835  6.423782  
 H   10.923534  6.153944  7.642791  
 O   9.481937  8.515426  7.021154  
 H   9.797161  8.862656  7.876480  
 O   7.742611  6.610361  8.898140  
 H   8.027718  7.317787  9.547937  
 O   7.493273  5.770618  6.266841  
 H   6.354033  5.671855  5.708984  
 H   7.849659  4.907364  6.416631  
    14 

 Al  8.420212  7.056275  7.269565  
 O   6.895825  8.239439  6.878200  
 H   6.025056  8.340352  7.279650  
 H   7.184882  9.133209  6.667909  
 O   10.121602  5.972574  7.087096  
 H   10.405894  5.291210  6.427368  
 H   10.923524  6.168615  7.646137  
 O   9.482826  8.510220  7.022944  
 H   9.809045  8.866453  7.888611  
 O   7.741186  6.611157  8.898582  
 H   8.034219  7.321451  9.547106  
 O   7.491848  5.770846  6.267966  
 H   6.343913  5.691805  5.696097  
 H   7.862101  4.924998  6.420233  
    14 

 Al  8.422838  7.053264  7.269552  
 O   6.893758  8.242621  6.876547  
 H   6.019275  8.334901  7.275501  
 H   7.182094  9.143157  6.677901  
 O   10.122018  5.971025  7.086072  
 H   10.407958  5.284492  6.429409  
 H   10.922066  6.183724  7.648551  
 O   9.483702  8.505010  7.024812  
 H   9.820928  8.870372  7.899008  
 O   7.739900  6.612117  8.899053  
 H   8.039685  7.322422  9.545743  
 O   7.490359  5.771405  6.269078  
 H   6.332595  5.712208  5.681912  
 H   7.875399  4.938245  6.424195  
    13 

 Al  8.425347  7.050191  7.269549  
 O   6.891752  8.245784  6.874807  
 H   6.012391  8.329685  7.272579  
 H   7.179462  9.154486  6.687777  
 O   10.122474  5.969512  7.085203  
 H   10.409414  5.276897  6.430063  
 H   10.919002  6.198926  7.649786  
 O   9.484592  8.499881  7.026809  
 H   9.832217  8.873916  7.906475  
 O   7.738763  6.613235  8.899550  
 H   8.044007  7.320649  9.543847  
 O   7.488814  5.772351  6.270168  
 H   7.889636  4.946297  6.428499  
    13 

 Al  8.427781  7.046994  7.269555  
 O   6.889762  8.249019  6.872945  
 H   6.004644  8.324623  7.270671  
 H   7.176733  9.166847  6.697886  
 O   10.122983  5.968007  7.084470  
 H   10.410293  5.268525  6.429593  
 H   10.914240  6.214323  7.649730  
 O   9.485544  8.494767  7.029020  
 H   9.842746  8.876805  7.910358  
 O   7.737751  6.614524  8.900072  
 H   8.047271  7.316215  9.541499  
 O   7.487199  5.773713  6.271266  
 H   7.904966  4.949389  6.433125  
    13 

 Al  8.430124  7.043684  7.269568  
 O   6.887786  8.252347  6.870969  
 H   5.996567  8.319760  7.269582  
 H   7.173704  9.179545  6.708336  
 O   10.123544  5.966509  7.083862  
 H   10.410573  5.259721  6.428301  
 H   10.907909  6.229683  7.648337  
 O   9.486574  8.489717  7.031466  
 H   9.852184  8.878779  7.910127  
 O   7.736861  6.615959  8.900604  
 H   8.049534  7.309411  9.538956  
 O   7.485561  5.775451  6.272386  
 H   7.920859  4.948293  6.437827  
    13 

 Al  8.432337  7.040302  7.269584  
 O   6.885832  8.255758  6.868911  
 H   5.988827  8.315192  7.269087  
 H   7.170212  9.191764  6.719113  
 O   10.124138  5.965029  7.083368  
 H   10.410226  5.250953  6.426532  
 H   10.900353  6.244676  7.645688  
 O   9.487684  8.484818  7.034126  
 H   9.860238  8.879684  7.905609  
 O   7.736092  6.617494  8.901115  
 H   8.050923  7.300784  9.536626  
 O   7.483981  5.777471  6.273536  
 H   7.936375  4.944356  6.442241  
    13 

 Al  8.434442  7.036808  7.269601  
 O   6.883858  8.259321  6.866752  
 H   5.981879  8.310897  7.268948  
 H   7.166049  9.203079  6.730427  
 O   10.124756  5.963535  7.082956  
 H   10.409231  5.242467  6.424586  
 H   10.891862  6.259399  7.641897  
 O   9.488890  8.480020  7.037023  
 H   9.866952  8.879513  7.896869  
 O   7.735419  6.619108  8.901583  
 H   8.051680  7.290819  9.534962  
 O   7.482508  5.779713  6.274756  
 H   7.950859  4.939057  6.446097  
